LAMMPS (7 Aug 2019)
# Input script

units lj # real # i.e. reduced units
dimension 3
atom_style atomic

# CREATE BOX
lattice sc 1
Lattice spacing in x,y,z = 1 1 1
region 1 block 0 40 0 40 0 40
create_box 1 1
Created orthogonal box = (0 0 0) to (40 40 40)
create_atoms 1 random 512 2 1
Created 512 atoms
mass 1 1  # mass is always 1 in reduced unit

# POTENTIAL
pair_style lj/cut 3.0
pair_coeff 1 1 0.5 1.0 # sigma is always 1.0 and the length unit of the system.

timestep 0.001

variable nAtoms equal atoms
variable Nrun equal 500000
variable Ne equal 10
variable Nr_rdf equal 0.5*500000/10

minimize 1.0e-4 1.0e-6 100 10000
  update every 1 steps, delay 0 steps, check yes
Step Temp E_pair E_mol TotEng Press
0            0    4.8583102            0    4.8583102   0.15936024
Loop time of 0.00597405 on 1 procs for 100 steps with 512 atoms

Minimization stats:
  Stopping criterion = max iterations
  Energy initial, next-to-last, final =
  Force two-norm initial, final = 75805.6 5.20656
  Force max component initial, final = 49918.4 1.77661
  Final line search alpha, max atom move = 0.0642809 0.114202
  Iterations, force evaluations = 100 206

variable  temp  equal 0.3
variable tdump equal 1.0

fix 1 all npt temp 0.3 0.3 1 iso 1.0 1.0 10.0

compute rdf_npt all rdf 1000 1 1
fix rdf_npt all ave/time 10 25000 500000 c_rdf_npt[*] file system_npt.rdf mode vector

#OUTPUT
thermo 1000
thermo_style custom step density
dump 		trj_npt all atom 500 sys_npt.lammpstrj

run 500000
  update every 1 steps, delay 10 steps, check yes
Step Density
     100        0.008
    1000  0.015046206
    2000  0.023637864
    3000    0.0333665
    4000  0.044201834
    5000  0.056062918
    6000  0.068869862
    7000  0.082644186
    8000  0.097429226
    9000    0.1131504
   10000   0.12975267
   11000   0.14726704
   12000    0.1656645
   13000   0.18505462
   14000   0.20527951
   15000   0.22643465
   16000   0.24827754
   17000    0.2712395
   18000   0.29484443
   19000   0.31925468
   20000   0.34431397
   21000   0.37114723
   22000   0.39752186
   23000   0.42536215
   24000   0.45327734
   25000   0.48250074
   26000   0.51210048
   27000   0.54420519
   28000   0.57536881
   29000   0.60763679
   30000   0.64126484
   31000   0.67639617
   32000   0.71279858
   33000   0.74882757
   34000   0.78551448
   35000   0.82213647
   36000   0.85644778
   37000   0.88378442
   38000    0.9051374
   39000   0.91997378
   40000   0.93024293
   41000   0.93658122
   42000   0.93878879
   43000   0.93825684
   44000   0.93697025
   45000   0.93673493
   46000   0.93798841
   47000   0.94013052
   48000   0.93915402
   49000   0.93832792
   50000   0.93830229
   51000   0.93778505
   52000   0.93863459
   53000    0.9391711
   54000    0.9390202
   55000   0.93923903
   56000   0.93969178
   57000    0.9398096
   58000   0.93945251
   59000    0.9383555
   60000   0.93590504
   61000   0.93462791
   62000   0.93767192
   63000   0.94234751
   64000   0.94433675
   65000     0.941787
   66000   0.94108784
   67000   0.94288899
   68000   0.94249365
   69000   0.94318005
   70000   0.94800401
   71000   0.94892231
   72000   0.94467754
   73000   0.93958571
   74000   0.93968815
   75000    0.9436713
   76000   0.94564549
   77000    0.9501915
   78000   0.95129998
   79000   0.94797676
   80000   0.94387935
   81000     0.942615
   82000   0.94153892
   83000   0.93939268
   84000   0.93834924
   85000   0.93634495
   86000   0.93277859
   87000   0.93552229
   88000   0.94139712
   89000   0.94302838
   90000   0.94522502
   91000   0.94701723
   92000    0.9418557
   93000   0.93701788
   94000    0.9387345
   95000   0.94012862
   96000   0.94039521
   97000   0.94363308
   98000   0.94827534
   99000   0.94760728
  100000   0.94644883
  101000   0.94444073
  102000   0.94251282
  103000   0.94089642
  104000   0.94307967
  105000   0.94494383
  106000   0.94581288
  107000   0.94092792
  108000   0.93307189
  109000     0.933653
  110000   0.93960488
  111000   0.94543653
  112000   0.94756699
  113000    0.9437564
  114000   0.93997593
  115000   0.93868029
  116000   0.93893027
  117000    0.9406048
  118000    0.9460883
  119000   0.94624375
  120000   0.93939369
  121000   0.93308665
  122000   0.93839472
  123000   0.94466372
  124000   0.94398189
  125000   0.94155252
  126000    0.9417872
  127000   0.94525665
  128000   0.94329283
  129000   0.94165738
  130000   0.94730597
  131000    0.9499608
  132000   0.94460885
  133000    0.9440166
  134000   0.94202108
  135000    0.9370927
  136000   0.94011765
  137000   0.94819063
  138000   0.94993133
  139000   0.94171509
  140000   0.93855405
  141000   0.93982187
  142000   0.94065168
  143000   0.94049206
  144000   0.94347131
  145000   0.94985019
  146000   0.94976825
  147000    0.9403843
  148000   0.93877592
  149000   0.94295575
  150000   0.94132922
  151000   0.93712199
  152000   0.94469677
  153000   0.95310422
  154000   0.94865278
  155000   0.93915204
  156000   0.93695681
  157000    0.9412111
  158000   0.94151493
  159000    0.9403538
  160000   0.94782184
  161000   0.95230867
  162000    0.9406914
  163000   0.92841028
  164000   0.93432928
  165000   0.94136701
  166000    0.9374699
  167000   0.93814348
  168000   0.94203815
  169000   0.93955163
  170000   0.93376312
  171000    0.9380694
  172000   0.94690981
  173000    0.9471674
  174000   0.94337991
  175000   0.94516897
  176000   0.94399858
  177000    0.9374398
  178000   0.93744458
  179000   0.94382023
  180000   0.94439974
  181000   0.94019992
  182000   0.94481061
  183000   0.94962551
  184000    0.9450426
  185000   0.93803318
  186000   0.93582574
  187000   0.93675753
  188000   0.93629712
  189000   0.93575757
  190000   0.94113179
  191000    0.9454367
  192000   0.93856683
  193000   0.93001079
  194000   0.93657833
  195000   0.94745038
  196000   0.94473429
  197000    0.9377947
  198000   0.93937057
  199000   0.94027502
  200000   0.93519378
  201000   0.93712066
  202000   0.95152913
  203000    0.9586725
  204000   0.94555302
  205000   0.93801707
  206000   0.94329253
  207000   0.94445114
  208000   0.93998611
  209000   0.94468474
  210000   0.95313769
  211000   0.95062281
  212000   0.94334623
  213000   0.94006455
  214000   0.93899743
  215000   0.93682822
  216000    0.9373157
  217000   0.94112173
  218000   0.94785075
  219000   0.94642765
  220000   0.93567921
  221000   0.92976529
  222000   0.93958642
  223000    0.9463851
  224000   0.94191563
  225000   0.94277662
  226000   0.94855413
  227000   0.94607649
  228000   0.94066185
  229000   0.94711914
  230000   0.95294248
  231000   0.94176619
  232000   0.93046873
  233000   0.93579364
  234000   0.94286756
  235000   0.94204419
  236000    0.9398513
  237000   0.94075661
  238000   0.94053436
  239000   0.93757494
  240000   0.93929222
  241000   0.94882401
  242000   0.95185627
  243000   0.94293448
  244000   0.94065749
  245000   0.94339552
  246000   0.94137651
  247000   0.93946731
  248000   0.94569623
  249000   0.94677701
  250000   0.93500313
  251000   0.93267703
  252000   0.94259652
  253000   0.94435923
  254000   0.94227639
  255000   0.94084441
  256000   0.94199739
  257000   0.93942695
  258000   0.93988192
  259000     0.948953
  260000   0.95527076
  261000   0.94622573
  262000   0.93528103
  263000   0.93893933
  264000   0.94471576
  265000   0.94078851
  266000   0.93897593
  267000   0.94596395
  268000   0.94590651
  269000   0.93881819
  270000   0.93785429
  271000   0.94039173
  272000   0.93567957
  273000   0.93564421
  274000    0.9473532
  275000   0.95028679
  276000    0.9407871
  277000   0.93700817
  278000   0.94358693
  279000    0.9443731
  280000   0.93965805
  281000   0.94391149
  282000   0.95339307
  283000   0.95114445
  284000   0.94252779
  285000   0.94148678
  286000   0.94570964
  287000   0.94383917
  288000   0.93867432
  289000   0.94340499
  290000   0.94933771
  291000   0.93904675
  292000   0.93217829
  293000    0.9477344
  294000   0.95206401
  295000   0.93210436
  296000   0.92916562
  297000   0.94863962
  298000    0.9456994
  299000   0.93129517
  300000   0.93710177
  301000   0.94722597
  302000   0.94014711
  303000   0.93334398
  304000   0.93981062
  305000   0.94541182
  306000   0.93793026
  307000   0.93659336
  308000   0.94676509
  309000   0.94782693
  310000   0.93775023
  311000    0.9380741
  312000   0.94538752
  313000   0.94156189
  314000   0.93228037
  315000   0.94009076
  316000   0.95352208
  317000   0.94732143
  318000   0.93798432
  319000   0.94195298
  320000   0.94361395
  321000   0.93915259
  322000   0.94097418
  323000   0.94842135
  324000   0.94826707
  325000   0.94443202
  326000   0.94577095
  327000    0.9465377
  328000   0.94179213
  329000   0.94016395
  330000   0.94496864
  331000   0.94861945
  332000   0.94584907
  333000   0.94219078
  334000   0.93976497
  335000   0.93831598
  336000   0.93815642
  337000   0.94112773
  338000   0.94635319
  339000   0.94859799
  340000   0.94394224
  341000   0.93633901
  342000   0.93373745
  343000   0.94234686
  344000   0.94683989
  345000   0.94270932
  346000   0.94266481
  347000   0.94358194
  348000   0.93952513
  349000   0.93453885
  350000   0.93141423
  351000   0.93327741
  352000   0.94042323
  353000   0.94113182
  354000   0.93786064
  355000   0.94159412
  356000   0.94936097
  357000   0.94810967
  358000   0.94001588
  359000   0.93370021
  360000   0.93458432
  361000   0.94012247
  362000   0.93633952
  363000   0.93856357
  364000   0.94828794
  365000   0.94779787
  366000   0.94044597
  367000   0.94547702
  368000   0.94911621
  369000   0.93264502
  370000   0.93137105
  371000   0.95077307
  372000   0.95285288
  373000   0.94031553
  374000   0.94134743
  375000   0.94732536
  376000   0.94135868
  377000   0.93785209
  378000   0.94593751
  379000   0.94995338
  380000   0.94562849
  381000   0.94191576
  382000    0.9409043
  383000   0.93799192
  384000   0.93540177
  385000   0.94375148
  386000   0.95280172
  387000   0.94975969
  388000   0.94268389
  389000   0.94225515
  390000   0.94373608
  391000    0.9407794
  392000   0.94304926
  393000   0.94919383
  394000   0.95200359
  395000    0.9501642
  396000   0.94567425
  397000   0.94289904
  398000   0.94213388
  399000   0.94216387
  400000   0.94246316
  401000   0.94561786
  402000   0.95531252
  403000   0.95348008
  404000   0.94100345
  405000   0.93741376
  406000   0.94518923
  407000   0.94628064
  408000   0.94100582
  409000    0.9426648
  410000   0.94334171
  411000   0.93944951
  412000   0.93857793
  413000   0.94307585
  414000   0.94240422
  415000   0.94062414
  416000   0.94818639
  417000   0.95138902
  418000   0.93818295
  419000   0.92937514
  420000   0.93399844
  421000   0.94239768
  422000   0.94276433
  423000   0.93586157
  424000    0.9356929
  425000   0.93994237
  426000   0.93797865
  427000   0.93606226
  428000   0.94373088
  429000   0.94550708
  430000   0.93560867
  431000   0.93468583
  432000   0.93921178
  433000   0.93699006
  434000   0.93608982
  435000   0.94373567
  436000   0.94739931
  437000   0.94187009
  438000   0.94270676
  439000   0.94421015
  440000   0.93503939
  441000   0.93554146
  442000   0.95028264
  443000   0.95190464
  444000   0.94100462
  445000   0.94300019
  446000   0.94977647
  447000   0.94146133
  448000   0.93563548
  449000   0.94536242
  450000   0.94442231
  451000      0.93082
  452000   0.93488825
  453000   0.94974322
  454000   0.94327804
  455000   0.93221608
  456000   0.94557979
  457000   0.94961201
  458000   0.93253281
  459000   0.93409781
  460000   0.95070794
  461000   0.94497923
  462000   0.93322917
  463000   0.94567464
  464000   0.95563337
  465000   0.94097492
  466000   0.93137579
  467000   0.93701318
  468000   0.94095452
  469000   0.93668435
  470000   0.93994119
  471000   0.94514694
  472000   0.94231597
  473000   0.93877147
  474000   0.94525585
  475000    0.9486711
  476000   0.94112727
  477000   0.93494782
  478000   0.93710535
  479000   0.93956456
  480000   0.93939292
  481000   0.94592508
  482000   0.95291478
  483000   0.94696897
  484000   0.93991206
  485000   0.94082975
  486000   0.94028444
  487000   0.93692434
  488000   0.94231881
  489000   0.95284328
  490000   0.94780178
  491000   0.93613039
  492000   0.93603139
  493000    0.9418387
  494000   0.94254014
  495000   0.94426469
  496000   0.94824187
  497000     0.947606
  498000   0.94294165
  499000    0.9401349
  500000   0.93506627
  500100   0.93463132
Loop time of 233.036 on 1 procs for 500000 steps with 512 atoms

unfix 1

fix 1 all nvt temp 0.3 0.3 1

compute rdf all rdf 1000 1 1
fix rdf all ave/time 10 25000 500000 c_rdf[*] file system_nvt05.rdf mode vector

compute msd all msd average yes

#OUTPUT
thermo 1000
thermo_style custom step temp press vol density pe c_msd[4]
dump 		trj all atom 500 sys_nvt05.lammpstrj

run 500000
  update every 1 steps, delay 10 steps, check yes
Step Temp Press Volume Density PotEng c_msd[4]
500100   0.30749368   0.96168733    547.80959   0.93463132   -3.2216263            0
Averages over the last 251 of 502 rows, steps 751000 to 1000100:
Temp Press Volume Density PotEng c_msd[4]
0.299614 0.891603 547.81 0.934631 -3.22853 4.69144
Loop time of 249.181 on 1 procs for 500000 steps with 512 atoms

write_restart 	restart.sys.final
