LAMMPS (7 Aug 2019)
# Input script

units lj # real # i.e. reduced units
dimension 3
atom_style atomic

# CREATE BOX
lattice sc 1
Lattice spacing in x,y,z = 1 1 1
region 1 block 0 40 0 40 0 40
create_box 1 1
Created orthogonal box = (0 0 0) to (40 40 40)
create_atoms 1 random 512 2 1
Created 512 atoms
mass 1 1  # mass is always 1 in reduced unit

# POTENTIAL
pair_style lj/cut 3.0
pair_coeff 1 1 0.05 1.0 # sigma is always 1.0 and the length unit of the system.

timestep 0.001

variable nAtoms equal atoms
variable Nrun equal 500000
variable Ne equal 10
variable Nr_rdf equal 0.5*500000/10

minimize 1.0e-4 1.0e-6 100 10000
  update every 1 steps, delay 0 steps, check yes
Step Temp E_pair E_mol TotEng Press
0            0   0.48583102            0   0.48583102  0.015936024
Loop time of 0.00604391 on 1 procs for 100 steps with 512 atoms

Minimization stats:
  Stopping criterion = max iterations
  Energy initial, next-to-last, final =
  Force two-norm initial, final = 7580.56 0.359488
  Force max component initial, final = 4991.84 0.0922603
  Final line search alpha, max atom move = 0.568295 0.0524311
  Iterations, force evaluations = 100 202

variable  temp  equal 0.3
variable tdump equal 1.0

fix 1 all npt temp 0.3 0.3 1 iso 1.0 1.0 10.0

compute rdf_npt all rdf 1000 1 1
fix rdf_npt all ave/time 10 25000 500000 c_rdf_npt[*] file system_npt.rdf mode vector

#OUTPUT
thermo 1000
thermo_style custom step density
dump 		trj_npt all atom 500 sys_npt.lammpstrj

run 500000
  update every 1 steps, delay 10 steps, check yes
Step Density
     100        0.008
    1000  0.015043959
    2000  0.023635629
    3000  0.033364443
    4000  0.044205808
    5000  0.056090782
    6000  0.068933386
    7000  0.082621685
    8000  0.097140221
    9000    0.1125933
   10000   0.12887281
   11000   0.14589889
   12000   0.16356964
   13000   0.18192478
   14000   0.20103489
   15000   0.22075102
   16000   0.24101929
   17000   0.26171713
   18000   0.28300803
   19000   0.30462413
   20000   0.32657881
   21000     0.348885
   22000   0.37165962
   23000   0.39494161
   24000   0.41831749
   25000   0.44155659
   26000   0.46449781
   27000    0.4875836
   28000   0.51115923
   29000   0.53440894
   30000    0.5568014
   31000    0.5787511
   32000   0.60001876
   33000   0.62113061
   34000   0.64135205
   35000   0.66100201
   36000   0.67932684
   37000   0.69707368
   38000    0.7135745
   39000   0.72875593
   40000   0.74208621
   41000   0.75472022
   42000   0.76568492
   43000   0.77626875
   44000   0.78493531
   45000    0.7920216
   46000   0.79720585
   47000   0.80261117
   48000   0.80871801
   49000   0.81442088
   50000   0.81836451
   51000   0.81964965
   52000   0.81899209
   53000   0.81858275
   54000   0.81984293
   55000   0.82290103
   56000   0.82586547
   57000   0.82596408
   58000   0.82471903
   59000   0.82364402
   60000   0.82407436
   61000    0.8263045
   62000   0.82771209
   63000   0.82646049
   64000   0.82399573
   65000   0.82317669
   66000   0.82536276
   67000   0.82554026
   68000   0.82210485
   69000   0.81999668
   70000   0.82125156
   71000   0.82456721
   72000   0.82556464
   73000   0.82293794
   74000   0.82074487
   75000   0.82175974
   76000   0.82289815
   77000   0.82222429
   78000    0.8218271
   79000   0.82335138
   80000   0.82925572
   81000   0.83346455
   82000   0.83300282
   83000    0.8288688
   84000   0.82435696
   85000   0.82269866
   86000   0.82395595
   87000   0.82374906
   88000   0.82035469
   89000   0.81714926
   90000   0.81734171
   91000   0.82002835
   92000   0.81888857
   93000   0.81527464
   94000   0.81521851
   95000   0.81961356
   96000    0.8230299
   97000   0.82349202
   98000   0.82235818
   99000   0.82074743
  100000   0.82035054
  101000   0.82070758
  102000    0.8199546
  103000   0.81970874
  104000   0.82084637
  105000   0.82319745
  106000   0.82376929
  107000   0.81981323
  108000   0.81580222
  109000   0.81572085
  110000   0.81984772
  111000   0.82508129
  112000   0.82692721
  113000   0.82886662
  114000   0.83357467
  115000   0.83673923
  116000   0.83436782
  117000   0.82881749
  118000   0.82297686
  119000   0.81818224
  120000    0.8122057
  121000   0.80790655
  122000   0.80819568
  123000   0.81378542
  124000   0.82090228
  125000   0.82609817
  126000   0.82990616
  127000   0.83334526
  128000   0.83227025
  129000   0.82743155
  130000   0.82461602
  131000   0.82426598
  132000   0.82549947
  133000   0.82412458
  134000   0.82205706
  135000   0.82390471
  136000   0.82747759
  137000   0.82861533
  138000   0.82538795
  139000   0.82366296
  140000   0.82718218
  141000   0.83137902
  142000   0.83018527
  143000     0.824593
  144000     0.818802
  145000   0.81469306
  146000   0.81215955
  147000   0.81130873
  148000   0.81682428
  149000   0.82532482
  150000   0.83110385
  151000   0.83323687
  152000   0.83422734
  153000   0.83537861
  154000   0.83367121
  155000    0.8282909
  156000   0.82139926
  157000   0.81783109
  158000   0.81740381
  159000   0.81680542
  160000   0.81561004
  161000   0.81692052
  162000   0.81999771
  163000   0.82354574
  164000   0.82459579
  165000   0.82364065
  166000   0.82443497
  167000   0.82925026
  168000   0.83482811
  169000    0.8340983
  170000   0.82612762
  171000   0.81615805
  172000   0.80778684
  173000   0.80176825
  174000   0.80029023
  175000   0.80519099
  176000   0.81571047
  177000   0.82977024
  178000   0.84258279
  179000   0.84614621
  180000   0.83807078
  181000   0.82521696
  182000   0.81712654
  183000   0.81547359
  184000   0.81555284
  185000   0.81621723
  186000   0.81957285
  187000    0.8265328
  188000   0.83427312
  189000   0.83670508
  190000    0.8297003
  191000   0.82193168
  192000   0.81862327
  193000   0.82010926
  194000   0.82398688
  195000   0.82713322
  196000   0.82816254
  197000    0.8295055
  198000   0.83257014
  199000   0.83332392
  200000   0.82777577
  201000   0.81877432
  202000    0.8142632
  203000   0.81603035
  204000   0.81898559
  205000   0.81848596
  206000    0.8208112
  207000   0.82648113
  208000   0.83163569
  209000   0.83120653
  210000   0.82569368
  211000    0.8214011
  212000   0.82154771
  213000    0.8212802
  214000   0.81821259
  215000   0.81580694
  216000   0.82088137
  217000   0.83220528
  218000   0.83715802
  219000   0.83410379
  220000   0.82757178
  221000   0.82118726
  222000   0.81754496
  223000   0.81457251
  224000   0.81436997
  225000   0.81705417
  226000   0.82160193
  227000   0.82596737
  228000   0.82989708
  229000   0.83336518
  230000    0.8382221
  231000    0.8424758
  232000   0.83801708
  233000   0.82348256
  234000   0.80958485
  235000   0.80420197
  236000   0.80753322
  237000   0.81248561
  238000    0.8178328
  239000   0.82571508
  240000   0.83162537
  241000      0.83206
  242000    0.8278901
  243000   0.82505658
  244000   0.82754249
  245000   0.83030607
  246000   0.82872778
  247000   0.82386491
  248000   0.81902692
  249000   0.81630746
  250000   0.81341168
  251000   0.80987865
  252000   0.81111638
  253000   0.81951407
  254000   0.83022007
  255000   0.83557356
  256000   0.83298131
  257000   0.82641739
  258000   0.81902502
  259000   0.81199233
  260000   0.80730144
  261000   0.80785614
  262000   0.81430833
  263000   0.82384819
  264000   0.83515829
  265000   0.84603035
  266000   0.84843659
  267000   0.83852427
  268000   0.82314285
  269000   0.81426206
  270000   0.81319179
  271000   0.81692625
  272000    0.8234299
  273000   0.83050576
  274000   0.83686963
  275000    0.8384349
  276000   0.83311605
  277000   0.82589818
  278000   0.82010307
  279000   0.81890396
  280000   0.81842794
  281000   0.81532974
  282000    0.8105512
  283000   0.81182147
  284000   0.81951268
  285000   0.82676841
  286000   0.82972552
  287000   0.82736828
  288000   0.82233096
  289000    0.8178686
  290000   0.81432194
  291000   0.80849975
  292000   0.80611682
  293000   0.81210061
  294000    0.8248235
  295000   0.83603685
  296000   0.84144062
  297000   0.84203678
  298000     0.837872
  299000   0.82983048
  300000   0.82043873
  301000   0.81340263
  302000   0.80971381
  303000   0.81086877
  304000    0.8177811
  305000   0.82569736
  306000   0.83576903
  307000   0.84582025
  308000   0.84725276
  309000   0.83494132
  310000   0.81514458
  311000   0.80651132
  312000   0.80999249
  313000   0.81621808
  314000   0.81997999
  315000   0.82375018
  316000   0.82811494
  317000   0.83116088
  318000   0.83128849
  319000   0.82903644
  320000   0.83046205
  321000   0.83616565
  322000   0.84021163
  323000   0.83720155
  324000   0.82800855
  325000   0.81916459
  326000   0.81285119
  327000   0.80820524
  328000   0.80598813
  329000   0.80885748
  330000   0.81871483
  331000   0.83221214
  332000   0.84048297
  333000   0.83815534
  334000   0.82871688
  335000     0.820818
  336000   0.81767691
  337000   0.81692349
  338000   0.81791367
  339000   0.81921686
  340000   0.82419925
  341000   0.83220495
  342000   0.83848655
  343000   0.83661198
  344000   0.82849315
  345000   0.82358283
  346000   0.82543867
  347000   0.83030794
  348000    0.8324049
  349000   0.83042061
  350000   0.82681421
  351000   0.82463043
  352000   0.82236867
  353000   0.81835309
  354000   0.81546872
  355000   0.81520704
  356000   0.81673947
  357000   0.81934204
  358000   0.82144308
  359000   0.82521093
  360000    0.8304048
  361000   0.83618346
  362000   0.83708676
  363000   0.83118347
  364000   0.82268982
  365000   0.81655586
  366000   0.81254545
  367000    0.8091886
  368000   0.80919232
  369000   0.81454002
  370000   0.82431306
  371000   0.83403351
  372000   0.83988431
  373000   0.84133706
  374000   0.83747788
  375000   0.82852623
  376000   0.81872805
  377000   0.81161458
  378000   0.81153061
  379000    0.8155888
  380000   0.81623312
  381000   0.81355026
  382000   0.81404281
  383000   0.82007125
  384000   0.82787865
  385000   0.83125836
  386000   0.83135573
  387000   0.83360947
  388000   0.83350257
  389000   0.82896188
  390000   0.82173302
  391000   0.81667506
  392000   0.81461231
  393000   0.81294849
  394000   0.80674535
  395000   0.80340734
  396000   0.80905704
  397000   0.81962321
  398000   0.82849691
  399000   0.83236904
  400000   0.83237912
  401000    0.8290974
  402000   0.82269928
  403000   0.81213992
  404000   0.80130568
  405000   0.79930197
  406000   0.81039991
  407000   0.82857901
  408000   0.84159665
  409000   0.84284506
  410000   0.83584595
  411000   0.82763151
  412000   0.81903127
  413000   0.81058003
  414000   0.80630577
  415000    0.8077651
  416000   0.81416614
  417000   0.82071825
  418000   0.82691844
  419000   0.83276242
  420000   0.83642207
  421000   0.83413407
  422000   0.82154745
  423000   0.80915553
  424000   0.80802954
  425000   0.81719037
  426000   0.82683934
  427000   0.83072336
  428000   0.82997681
  429000   0.83037529
  430000   0.83037473
  431000   0.82700383
  432000   0.82160881
  433000   0.81632331
  434000    0.8120791
  435000   0.80937587
  436000   0.80997638
  437000   0.81672273
  438000   0.82658765
  439000   0.83242951
  440000   0.82875822
  441000   0.81808731
  442000   0.81063154
  443000    0.8097715
  444000   0.81430723
  445000    0.8162657
  446000    0.8154883
  447000   0.81853196
  448000   0.82637104
  449000   0.83167593
  450000   0.83268257
  451000   0.83399571
  452000   0.83386786
  453000   0.83023228
  454000   0.82193856
  455000   0.81494027
  456000   0.81424508
  457000   0.82089344
  458000   0.82790145
  459000   0.82978639
  460000   0.82748631
  461000   0.82586163
  462000   0.82426751
  463000   0.81950853
  464000   0.81198546
  465000   0.80818807
  466000   0.81330832
  467000   0.82365444
  468000   0.83222947
  469000   0.83190145
  470000   0.82646507
  471000   0.82120463
  472000   0.81842993
  473000   0.81677305
  474000     0.814131
  475000   0.81279217
  476000   0.81455133
  477000   0.82263379
  478000   0.83354647
  479000   0.83778802
  480000   0.83327735
  481000   0.82609697
  482000   0.82280008
  483000   0.82120367
  484000   0.82031006
  485000   0.81940494
  486000   0.82237854
  487000   0.83119436
  488000   0.84110186
  489000   0.84288383
  490000   0.83638494
  491000   0.82750608
  492000   0.81966768
  493000   0.81287995
  494000   0.80736974
  495000   0.80498433
  496000   0.80640819
  497000   0.80916597
  498000   0.81239814
  499000   0.82013678
  500000   0.82933831
  500100    0.8301255
Loop time of 203.935 on 1 procs for 500000 steps with 512 atoms

unfix 1

fix 1 all nvt temp 0.3 0.3 1

compute rdf all rdf 1000 1 1
fix rdf all ave/time 10 25000 500000 c_rdf[*] file system_nvt005.rdf mode vector

compute msd all msd average yes

#OUTPUT
thermo 1000
thermo_style custom step temp press vol density pe c_msd[4]
dump 		trj all atom 500 sys_nvt005.lammpstrj

run 500000
  update every 1 steps, delay 10 steps, check yes
Step Temp Press Volume Density PotEng c_msd[4]
500100   0.29995861     1.056967    616.77421    0.8301255 -0.096596344            0
Averages over the last 251 of 502 rows, steps 751000 to 1000100:
Temp Press Volume Density PotEng c_msd[4]
0.299948 1.02424 616.774 0.830125 -0.105332 65.9611
Loop time of 221.718 on 1 procs for 500000 steps with 512 atoms

write_restart 	restart.sys.final
