LAMMPS (7 Aug 2019)
# Input script

units lj # real # i.e. reduced units
dimension 3
atom_style atomic

# CREATE BOX
lattice sc 1
Lattice spacing in x,y,z = 1 1 1
region 1 block 0 40 0 40 0 40
create_box 1 1
Created orthogonal box = (0 0 0) to (40 40 40)
create_atoms 1 random 512 2 1
Created 512 atoms
mass 1 1  # mass is always 1 in reduced unit

# POTENTIAL
pair_style lj/cut 3.0
pair_coeff 1 1 0.01 1.0 # sigma is always 1.0 and the length unit of the system.

timestep 0.001

variable nAtoms equal atoms
variable Nrun equal 500000
variable Ne equal 10
variable Nr_rdf equal 0.5*500000/10

minimize 1.0e-4 1.0e-6 100 10000
  update every 1 steps, delay 0 steps, check yes
Step Temp E_pair E_mol TotEng Press
0            0  0.097166204            0  0.097166204 0.0031872049
Loop time of 0.00708413 on 1 procs for 100 steps with 512 atoms

Minimization stats:
  Stopping criterion = max iterations
  Energy initial, next-to-last, final =
  Force two-norm initial, final = 1516.11 0.0454103
  Force max component initial, final = 998.368 0.0172971
  Final line search alpha, max atom move = 1 0.0172971
  Iterations, force evaluations = 100 108

variable  temp  equal 0.3
variable tdump equal 1.0

fix 1 all npt temp 0.3 0.3 1 iso 1.0 1.0 10.0

compute rdf_npt all rdf 1000 1 1
fix rdf_npt all ave/time 10 25000 500000 c_rdf_npt[*] file system_npt.rdf mode vector

#OUTPUT
thermo 1000
thermo_style custom step density
dump 		trj_npt all atom 500 sys_npt.lammpstrj

run 500000
  update every 1 steps, delay 10 steps, check yes
Step Density
     100        0.008
    1000  0.015044404
    2000  0.023635461
    3000  0.033365118
    4000  0.044210324
    5000  0.056110788
    6000  0.068984469
    7000  0.082730579
    8000  0.097256025
    9000   0.11265178
   10000   0.12892591
   11000   0.14597111
   12000   0.16367727
   13000   0.18201621
   14000   0.20104968
   15000   0.22074289
   16000   0.24101445
   17000   0.26167997
   18000   0.28277749
   19000   0.30441471
   20000   0.32661249
   21000   0.34899821
   22000   0.37175984
   23000   0.39481676
   24000   0.41807956
   25000   0.44146773
   26000   0.46503112
   27000   0.48838739
   28000   0.51185824
   29000   0.53526887
   30000   0.55836491
   31000   0.58118025
   32000   0.60359856
   33000   0.62587604
   34000   0.64768618
   35000   0.66909044
   36000   0.68960426
   37000   0.70971075
   38000    0.7296789
   39000    0.7484339
   40000   0.76565979
   41000   0.78204614
   42000   0.79715702
   43000   0.81216198
   44000   0.82695204
   45000   0.83996928
   46000   0.85143685
   47000   0.86167935
   48000   0.87128083
   49000   0.87972922
   50000   0.88751399
   51000   0.89421503
   52000    0.8998414
   53000   0.90511928
   54000   0.90992375
   55000   0.91299877
   56000   0.91548437
   57000   0.91789858
   58000   0.92030956
   59000   0.92201978
   60000   0.92328711
   61000   0.92415965
   62000   0.92507728
   63000   0.92607744
   64000   0.92615961
   65000   0.92570963
   66000   0.92675072
   67000   0.92839256
   68000   0.92852071
   69000    0.9256921
   70000   0.92323823
   71000   0.92358577
   72000    0.9257839
   73000   0.92753102
   74000   0.92696573
   75000   0.92575305
   76000   0.92587925
   77000   0.92734153
   78000   0.92692391
   79000    0.9245807
   80000   0.92523494
   81000   0.92824365
   82000   0.92895597
   83000   0.92784071
   84000   0.92523993
   85000   0.92600719
   86000   0.93111744
   87000   0.93538438
   88000    0.9346535
   89000   0.93077083
   90000   0.92868513
   91000   0.93036645
   92000   0.93331455
   93000   0.93332866
   94000   0.93059563
   95000   0.92899933
   96000   0.92812515
   97000    0.9259947
   98000   0.92185457
   99000   0.91941698
  100000   0.91921246
  101000    0.9211212
  102000   0.92329518
  103000   0.92350503
  104000    0.9227519
  105000   0.92249225
  106000   0.92160124
  107000   0.91947196
  108000   0.91827382
  109000     0.919269
  110000   0.92400145
  111000   0.92747641
  112000   0.92674928
  113000   0.92451096
  114000   0.92476912
  115000    0.9275287
  116000   0.92843247
  117000   0.92575984
  118000    0.9201765
  119000   0.91584123
  120000   0.91654522
  121000   0.92047051
  122000   0.92109697
  123000   0.92097521
  124000   0.92130552
  125000   0.92184306
  126000   0.92227378
  127000   0.92110848
  128000    0.9198995
  129000   0.92083328
  130000    0.9239246
  131000    0.9255259
  132000   0.92376392
  133000   0.91952122
  134000   0.91936343
  135000   0.92198512
  136000   0.92488975
  137000   0.92796528
  138000   0.93139338
  139000   0.93481186
  140000   0.93457023
  141000   0.92932159
  142000   0.92175618
  143000   0.91768837
  144000   0.91727275
  145000   0.91809832
  146000   0.91756702
  147000   0.91673675
  148000   0.91800749
  149000   0.92333349
  150000   0.92822579
  151000   0.92854541
  152000   0.92711113
  153000   0.92639116
  154000   0.92750025
  155000   0.92820904
  156000   0.92726987
  157000   0.92702883
  158000   0.93238182
  159000    0.9383561
  160000   0.93900826
  161000   0.93427023
  162000   0.92940045
  163000   0.92840902
  164000     0.927721
  165000   0.92350821
  166000   0.91949947
  167000   0.91980496
  168000   0.92250665
  169000   0.92205026
  170000   0.91988074
  171000    0.9193698
  172000    0.9231616
  173000     0.928425
  174000   0.92909692
  175000   0.92574203
  176000   0.92312467
  177000   0.92220325
  178000    0.9196983
  179000    0.9151285
  180000   0.91231622
  181000   0.91711088
  182000   0.92923566
  183000   0.94197008
  184000   0.95198901
  185000   0.95682472
  186000   0.95633473
  187000   0.94817339
  188000   0.93028714
  189000   0.90697158
  190000   0.88908445
  191000   0.88183649
  192000   0.88396693
  193000   0.89569885
  194000   0.91429371
  195000   0.93408702
  196000   0.94778991
  197000   0.95507897
  198000   0.95888083
  199000   0.95637631
  200000   0.94430402
  201000   0.92810619
  202000    0.9156034
  203000   0.90896667
  204000   0.90578292
  205000   0.90471396
  206000   0.90839205
  207000   0.91641569
  208000   0.92430475
  209000   0.92916405
  210000   0.93037213
  211000     0.930643
  212000   0.93378771
  213000   0.93983942
  214000    0.9416216
  215000   0.93645029
  216000   0.92817098
  217000   0.92363896
  218000   0.92537842
  219000   0.92831534
  220000   0.92759792
  221000   0.92671906
  222000   0.92752934
  223000   0.92924379
  224000   0.92847462
  225000   0.92495919
  226000   0.92168409
  227000   0.92017091
  228000   0.92079428
  229000   0.92165649
  230000   0.91942281
  231000   0.91943519
  232000   0.92368756
  233000   0.92935169
  234000   0.93111886
  235000   0.93076024
  236000   0.92988545
  237000    0.9292503
  238000   0.93020207
  239000   0.93102724
  240000   0.93128816
  241000    0.9289983
  242000   0.92502764
  243000   0.92279217
  244000   0.92495845
  245000   0.92788883
  246000   0.92906483
  247000    0.9295551
  248000   0.92992876
  249000   0.93085872
  250000   0.92973676
  251000    0.9247578
  252000   0.91851283
  253000   0.91543647
  254000   0.91632997
  255000   0.91915557
  256000   0.92409553
  257000   0.92982366
  258000   0.93607856
  259000   0.94058152
  260000   0.93750203
  261000   0.92707397
  262000   0.91703524
  263000   0.91186502
  264000   0.91094517
  265000   0.91355531
  266000   0.92027542
  267000   0.93056019
  268000   0.94079506
  269000   0.94523954
  270000   0.94076084
  271000   0.93231367
  272000   0.92521928
  273000   0.91857876
  274000    0.9128652
  275000   0.91054713
  276000     0.912419
  277000   0.91845966
  278000   0.92404448
  279000   0.92726719
  280000   0.93040627
  281000   0.93350025
  282000    0.9319935
  283000   0.92309547
  284000   0.91141867
  285000   0.90594528
  286000   0.91006238
  287000   0.91802248
  288000   0.92610926
  289000   0.93208104
  290000   0.93808404
  291000   0.94138315
  292000   0.94052228
  293000   0.93440733
  294000   0.92488466
  295000     0.914919
  296000   0.90604945
  297000   0.89951139
  298000   0.89807272
  299000   0.90806062
  300000   0.92883969
  301000   0.94981863
  302000   0.96030195
  303000   0.96073128
  304000   0.95472515
  305000   0.94483967
  306000   0.93234565
  307000   0.91769035
  308000   0.90551928
  309000   0.90103311
  310000   0.90356426
  311000   0.90809213
  312000   0.91241578
  313000   0.91843689
  314000   0.92635886
  315000    0.9338581
  316000   0.94062486
  317000   0.94728087
  318000   0.95077734
  319000   0.94639316
  320000   0.93514591
  321000   0.92393693
  322000   0.91547794
  323000   0.91041661
  324000    0.9103186
  325000   0.91537428
  326000   0.92400903
  327000   0.93388545
  328000   0.94348326
  329000   0.94936025
  330000   0.94833102
  331000   0.93838183
  332000   0.92538791
  333000   0.91770727
  334000   0.91724363
  335000   0.91977848
  336000    0.9230574
  337000   0.92775946
  338000   0.93415728
  339000   0.93987077
  340000   0.93966611
  341000   0.93119785
  342000   0.91929049
  343000   0.91121038
  344000   0.90659614
  345000   0.90433292
  346000   0.90615078
  347000   0.91411066
  348000   0.92616901
  349000   0.93862526
  350000   0.94837319
  351000    0.9537364
  352000    0.9519444
  353000   0.94308558
  354000   0.93132903
  355000   0.92098903
  356000   0.91388957
  357000   0.91096081
  358000   0.91160369
  359000   0.91539928
  360000   0.92385008
  361000   0.93559412
  362000   0.94355536
  363000   0.94302002
  364000   0.93677451
  365000     0.930429
  366000    0.9265386
  367000   0.92409073
  368000   0.92171191
  369000   0.92086376
  370000   0.92300399
  371000   0.92456114
  372000    0.9236853
  373000   0.91854133
  374000   0.91090818
  375000   0.90742393
  376000   0.90874767
  377000    0.9126675
  378000   0.91538088
  379000   0.91987534
  380000   0.92884431
  381000   0.93755972
  382000   0.93944813
  383000   0.93577755
  384000   0.93338282
  385000   0.93233964
  386000   0.93010929
  387000   0.92616238
  388000   0.92136645
  389000   0.91881972
  390000   0.92097831
  391000   0.92556325
  392000   0.92771285
  393000   0.92725098
  394000   0.92776953
  395000   0.92964475
  396000   0.93006183
  397000   0.92927269
  398000   0.92716284
  399000   0.92587216
  400000   0.92538021
  401000    0.9236378
  402000   0.92004231
  403000   0.91673941
  404000   0.91747574
  405000   0.92115962
  406000   0.92293729
  407000   0.92332351
  408000   0.92392431
  409000   0.92668645
  410000   0.93056587
  411000   0.92970902
  412000   0.92488793
  413000   0.92262092
  414000   0.92321798
  415000   0.92252818
  416000   0.91983484
  417000   0.91759192
  418000    0.9174469
  419000   0.92008111
  420000   0.92680755
  421000   0.93814633
  422000   0.95444966
  423000   0.97060271
  424000   0.97381974
  425000   0.95841313
  426000   0.93159602
  427000   0.90611517
  428000   0.89034481
  429000   0.88597007
  430000   0.89052161
  431000    0.9002568
  432000   0.91465902
  433000   0.93121929
  434000   0.94287681
  435000   0.94544152
  436000   0.94244507
  437000   0.93898471
  438000   0.93604377
  439000   0.93184051
  440000   0.92659384
  441000   0.92260646
  442000   0.91975106
  443000   0.91644356
  444000   0.91347274
  445000   0.91446802
  446000   0.92071149
  447000   0.92892247
  448000   0.93066623
  449000   0.92589646
  450000   0.92133406
  451000    0.9186532
  452000   0.91772777
  453000   0.91761072
  454000    0.9207919
  455000   0.92771319
  456000   0.93203943
  457000   0.92810878
  458000    0.9220875
  459000   0.92017232
  460000   0.92185174
  461000   0.92355595
  462000   0.92203423
  463000   0.92119277
  464000   0.92167195
  465000   0.92307347
  466000   0.92293552
  467000   0.91908349
  468000   0.91451049
  469000   0.91515249
  470000   0.92130761
  471000   0.92740676
  472000   0.92965905
  473000   0.93211917
  474000   0.93700366
  475000   0.93958939
  476000   0.93686324
  477000   0.92960914
  478000   0.92366585
  479000   0.92197834
  480000    0.9215623
  481000   0.92079828
  482000   0.91997033
  483000   0.92127204
  484000   0.92359113
  485000    0.9219461
  486000   0.91743517
  487000   0.91459626
  488000   0.91607346
  489000   0.92125209
  490000   0.92668753
  491000    0.9322751
  492000   0.93792966
  493000   0.94306451
  494000   0.94383583
  495000   0.93549319
  496000   0.92556923
  497000   0.92012311
  498000   0.91844498
  499000    0.9177983
  500000   0.91652936
  500100   0.91640981
Loop time of 202.995 on 1 procs for 500000 steps with 512 atoms

unfix 1

fix 1 all nvt temp 0.3 0.3 1

compute rdf all rdf 1000 1 1
fix rdf all ave/time 10 25000 500000 c_rdf[*] file system_nvt001.rdf mode vector

compute msd all msd average yes

#OUTPUT
thermo 1000
thermo_style custom step temp press vol density pe c_msd[4]
dump 		trj all atom 500 sys_nvt001.lammpstrj

run 500000
  update every 1 steps, delay 10 steps, check yes
Step Temp Press Volume Density PotEng c_msd[4]
500100   0.30223166   0.98564944    558.70201   0.91640981  0.098061638            0
Averages over the last 251 of 502 rows, steps 751000 to 1000100:
Temp Press Volume Density PotEng c_msd[4]
0.29848 0.97331 558.702 0.91641 0.0961963 91.1402
Loop time of 212.164 on 1 procs for 500000 steps with 512 atoms

write_restart 	restart.sys.final
