LAMMPS (7 Aug 2019)
# Input script

units lj # real # i.e. reduced units
dimension 3
atom_style atomic

# CREATE BOX
lattice sc 1
Lattice spacing in x,y,z = 1 1 1
region 1 block 0 40 0 40 0 40
create_box 1 1
Created orthogonal box = (0 0 0) to (40 40 40)
create_atoms 1 random 512 2 1
Created 512 atoms
mass 1 1  # mass is always 1 in reduced unit

# POTENTIAL
pair_style lj/cut 3.0
pair_coeff 1 1 1.0 1.0 # sigma is always 1.0 and the length unit of the system.

timestep 0.001

variable nAtoms equal atoms
variable Nrun equal 500000
variable Ne equal 10
variable Nr_rdf equal 0.5*500000/10

minimize 1.0e-4 1.0e-6 100 10000
  update every 1 steps, delay 0 steps, check yes
Step Temp E_pair E_mol TotEng Press
0            0    9.7166204            0    9.7166204   0.31872049
Loop time of 0.00595689 on 1 procs for 100 steps with 512 atoms

Minimization stats:
  Stopping criterion = max iterations
  Energy initial, next-to-last, final =
  Force two-norm initial, final = 151611 10.4131
  Force max component initial, final = 99836.8 3.55321
  Final line search alpha, max atom move = 0.0321404 0.114202
  Iterations, force evaluations = 100 206

variable  temp  equal 0.3
variable tdump equal 1.0

fix 1 all npt temp 0.3 0.3 1 iso 1.0 1.0 10.0

compute rdf_npt all rdf 1000 1 1
fix rdf_npt all ave/time 10 25000 500000 c_rdf_npt[*] file system_npt.rdf mode vector

#OUTPUT
thermo 1000
thermo_style custom step density
dump 		trj_npt all atom 500 sys_npt.lammpstrj

run 500000
  update every 1 steps, delay 10 steps, check yes
Step Density
     100        0.008
    1000  0.015045436
    2000  0.023637492
    3000  0.033360068
    4000   0.04417961
    5000  0.056029268
    6000  0.068914737
    7000   0.08284158
    8000  0.097772607
    9000   0.11370597
   10000   0.13062151
   11000   0.14851508
   12000   0.16729657
   13000   0.18696805
   14000   0.20769512
   15000   0.22901021
   16000   0.25141065
   17000   0.27400933
   18000   0.29810776
   19000   0.32297003
   20000   0.34764285
   21000   0.37417945
   22000    0.4011462
   23000   0.42975148
   24000   0.45979382
   25000   0.48873831
   26000   0.52039021
   27000    0.5518798
   28000   0.58388498
   29000   0.61964849
   30000   0.65571664
   31000   0.69524019
   32000   0.73586193
   33000   0.77079789
   34000   0.80741238
   35000   0.84265989
   36000   0.88082884
   37000    0.9110629
   38000   0.93654177
   39000   0.95750445
   40000   0.97045863
   41000   0.97712981
   42000   0.98147184
   43000   0.98429811
   44000   0.98351807
   45000   0.98247894
   46000   0.98147821
   47000   0.98223417
   48000   0.98528117
   49000   0.98795845
   50000    0.9885021
   51000   0.98814189
   52000   0.98509528
   53000   0.98394424
   54000   0.98417287
   55000   0.98644911
   56000   0.98851558
   57000   0.98964482
   58000   0.98907884
   59000   0.98732208
   60000   0.98621418
   61000   0.98687607
   62000   0.98889956
   63000   0.98955726
   64000   0.99116018
   65000   0.98887453
   66000    0.9882893
   67000   0.98755871
   68000   0.98839287
   69000    0.9903329
   70000   0.99142916
   71000   0.99072341
   72000   0.98950589
   73000   0.98806766
   74000    0.9895361
   75000   0.99111522
   76000   0.99281505
   77000   0.99241267
   78000    0.9909868
   79000   0.98883861
   80000   0.98853288
   81000   0.99038329
   82000   0.99206443
   83000   0.99343921
   84000   0.99336398
   85000   0.99156271
   86000   0.99001995
   87000   0.99002484
   88000   0.99217921
   89000   0.99434859
   90000   0.99386685
   91000   0.99148264
   92000   0.99140476
   93000   0.99187681
   94000    0.9917395
   95000    0.9940658
   96000   0.99452866
   97000   0.99419736
   98000   0.99321848
   99000   0.98867798
  100000   0.99371666
  101000   0.99456372
  102000   0.99255541
  103000   0.99518468
  104000   0.99221231
  105000   0.99060512
  106000   0.99028106
  107000   0.99300972
  108000   0.99387965
  109000   0.99336502
  110000   0.99438748
  111000   0.99455234
  112000    0.9937663
  113000   0.99253965
  114000   0.99132335
  115000   0.99188567
  116000   0.99277849
  117000   0.99591282
  118000   0.99400314
  119000   0.99187336
  120000   0.99131226
  121000   0.99219262
  122000   0.99360807
  123000   0.99365812
  124000   0.99388432
  125000   0.99305449
  126000   0.99023537
  127000   0.99325891
  128000   0.99561249
  129000   0.99329949
  130000   0.99492019
  131000   0.99393197
  132000    0.9906787
  133000   0.99124823
  134000   0.99338084
  135000   0.99471783
  136000   0.99405606
  137000   0.99534493
  138000   0.99376229
  139000   0.99194313
  140000   0.99215452
  141000   0.99204165
  142000      0.99627
  143000    0.9957932
  144000   0.99243957
  145000   0.99483345
  146000   0.99015457
  147000   0.99395187
  148000   0.99529111
  149000   0.99192211
  150000   0.99850756
  151000   0.99291809
  152000   0.99371748
  153000   0.99474488
  154000   0.98879349
  155000   0.99774501
  156000   0.99569122
  157000   0.99462564
  158000   0.99777752
  159000   0.99125139
  160000   0.99538485
  161000   0.99419275
  162000   0.99157839
  163000    1.0011762
  164000   0.99421838
  165000   0.99486718
  166000   0.99509619
  167000   0.99004141
  168000   0.99605433
  169000   0.99355644
  170000   0.99561403
  171000   0.99981549
  172000   0.98984281
  173000   0.99302954
  174000   0.99634809
  175000   0.99168929
  176000   0.99878215
  177000   0.99479826
  178000   0.99218807
  179000   0.99564698
  180000   0.98965835
  181000   0.99897451
  182000   0.99654585
  183000   0.99209653
  184000    1.0010432
  185000   0.99092523
  186000   0.99611849
  187000    1.0031054
  188000   0.99084165
  189000     1.002107
  190000    0.9929557
  191000   0.99263389
  192000     1.001325
  193000   0.99111458
  194000    1.0034583
  195000   0.99782162
  196000   0.99226025
  197000    1.0006395
  198000    0.9906147
  199000    1.0010598
  200000    0.9985282
  201000   0.99476287
  202000    1.0038397
  203000   0.99473971
  204000   0.99993242
  205000    1.0030196
  206000   0.99472293
  207000    1.0041861
  208000   0.99861463
  209000   0.99554532
  210000    1.0027145
  211000   0.99599692
  212000    1.0040292
  213000    1.0015716
  214000   0.99753664
  215000    1.0008573
  216000   0.99644983
  217000    1.0017693
  218000    1.0019458
  219000     1.000654
  220000    1.0034704
  221000    1.0006237
  222000    0.9989712
  223000    1.0006893
  224000    1.0020478
  225000    1.0038096
  226000    1.0025664
  227000    1.0048753
  228000    1.0054512
  229000    1.0082906
  230000    1.0113035
  231000    1.0086458
  232000    1.0122177
  233000    1.0088963
  234000    1.0062079
  235000    1.0102584
  236000    1.0096733
  237000    1.0157148
  238000    1.0187249
  239000    1.0182703
  240000    1.0258322
  241000    1.0234063
  242000    1.0244823
  243000    1.0282192
  244000    1.0224418
  245000    1.0262077
  246000    1.0237512
  247000    1.0243647
  248000    1.0307659
  249000    1.0232135
  250000    1.0286415
  251000     1.023228
  252000    1.0212143
  253000    1.0314747
  254000    1.0251414
  255000    1.0272064
  256000    1.0266718
  257000    1.0211014
  258000    1.0298194
  259000    1.0241894
  260000    1.0292303
  261000    1.0278804
  262000    1.0211418
  263000    1.0304137
  264000    1.0212987
  265000    1.0267318
  266000    1.0290181
  267000    1.0221807
  268000    1.0341773
  269000      1.02348
  270000    1.0220965
  271000     1.029237
  272000    1.0211366
  273000    1.0315693
  274000    1.0260372
  275000    1.0237781
  276000    1.0293361
  277000    1.0182583
  278000    1.0301067
  279000    1.0269167
  280000    1.0240786
  281000    1.0310227
  282000    1.0209442
  283000    1.0293045
  284000    1.0249937
  285000    1.0222318
  286000    1.0343967
  287000    1.0234867
  288000    1.0285605
  289000    1.0262925
  290000    1.0228444
  291000    1.0301857
  292000    1.0221496
  293000    1.0294097
  294000      1.02893
  295000    1.0241107
  296000    1.0277302
  297000    1.0223365
  298000    1.0283592
  299000    1.0284557
  300000    1.0261255
  301000    1.0303681
  302000    1.0238627
  303000    1.0262372
  304000    1.0254964
  305000    1.0228152
  306000    1.0318237
  307000    1.0267227
  308000    1.0261464
  309000    1.0285016
  310000    1.0224963
  311000     1.029107
  312000     1.025563
  313000    1.0270183
  314000    1.0312963
  315000    1.0216649
  316000    1.0265213
  317000    1.0260185
  318000    1.0243592
  319000    1.0308833
  320000    1.0239096
  321000    1.0308255
  322000     1.028099
  323000    1.0207105
  324000    1.0311333
  325000    1.0210873
  326000     1.028905
  327000    1.0300506
  328000    1.0251604
  329000    1.0360882
  330000    1.0216694
  331000    1.0283229
  332000     1.028323
  333000    1.0200642
  334000    1.0324992
  335000    1.0247665
  336000    1.0286083
  337000    1.0293692
  338000    1.0204062
  339000    1.0302575
  340000    1.0244217
  341000    1.0257365
  342000    1.0321218
  343000     1.026089
  344000    1.0303694
  345000    1.0246257
  346000    1.0260659
  347000    1.0271812
  348000    1.0235856
  349000     1.031659
  350000    1.0279426
  351000    1.0234229
  352000     1.027434
  353000    1.0237213
  354000    1.0285454
  355000     1.027102
  356000    1.0269154
  357000    1.0270785
  358000    1.0213587
  359000    1.0268189
  360000    1.0265105
  361000    1.0291143
  362000      1.02648
  363000    1.0262079
  364000    1.0266064
  365000    1.0244699
  366000    1.0284167
  367000    1.0298764
  368000    1.0268838
  369000    1.0272625
  370000     1.024817
  371000    1.0256987
  372000    1.0279884
  373000    1.0288482
  374000    1.0286707
  375000    1.0263504
  376000    1.0259052
  377000    1.0266018
  378000    1.0249099
  379000    1.0285905
  380000    1.0271802
  381000    1.0279565
  382000    1.0275678
  383000    1.0220921
  384000    1.0279381
  385000    1.0254226
  386000    1.0261381
  387000    1.0298903
  388000    1.0223205
  389000     1.029461
  390000    1.0230793
  391000      1.02158
  392000    1.0318939
  393000    1.0222842
  394000    1.0306981
  395000    1.0266945
  396000    1.0187083
  397000    1.0310504
  398000    1.0177669
  399000    1.0309108
  400000    1.0288531
  401000    1.0200314
  402000    1.0363652
  403000      1.01625
  404000    1.0274655
  405000    1.0280375
  406000    1.0161414
  407000    1.0354693
  408000    1.0234491
  409000    1.0272403
  410000    1.0296001
  411000    1.0212839
  412000    1.0294552
  413000    1.0252801
  414000    1.0264926
  415000    1.0309578
  416000    1.0268887
  417000    1.0274491
  418000     1.024896
  419000    1.0258386
  420000    1.0268444
  421000    1.0272436
  422000    1.0300888
  423000    1.0260625
  424000    1.0228391
  425000    1.0269934
  426000    1.0259841
  427000    1.0274641
  428000      1.02764
  429000    1.0235814
  430000    1.0233538
  431000    1.0270649
  432000     1.026683
  433000    1.0277009
  434000    1.0264505
  435000    1.0224863
  436000    1.0234149
  437000    1.0258105
  438000    1.0256463
  439000    1.0258322
  440000    1.0273757
  441000    1.0258055
  442000    1.0262672
  443000     1.023812
  444000    1.0239331
  445000    1.0269327
  446000    1.0279937
  447000    1.0254514
  448000    1.0272857
  449000      1.02518
  450000    1.0251889
  451000    1.0276855
  452000    1.0261189
  453000    1.0290189
  454000    1.0299276
  455000    1.0238363
  456000    1.0272325
  457000    1.0253066
  458000    1.0271217
  459000    1.0299315
  460000    1.0280026
  461000    1.0299664
  462000     1.025768
  463000    1.0237746
  464000    1.0279651
  465000    1.0223371
  466000    1.0311958
  467000    1.0275526
  468000    1.0239894
  469000    1.0282594
  470000    1.0216656
  471000    1.0309418
  472000     1.027552
  473000    1.0249289
  474000    1.0315745
  475000    1.0173912
  476000    1.0316003
  477000    1.0257399
  478000    1.0250404
  479000    1.0340801
  480000     1.018821
  481000    1.0303921
  482000    1.0253694
  483000    1.0206044
  484000    1.0336323
  485000    1.0201502
  486000    1.0310208
  487000    1.0267384
  488000    1.0193363
  489000    1.0295695
  490000    1.0217227
  491000    1.0289768
  492000    1.0275545
  493000    1.0238136
  494000    1.0300811
  495000      1.02061
  496000    1.0260874
  497000    1.0288561
  498000     1.025128
  499000    1.0300802
  500000    1.0240675
  500100    1.0235133
Loop time of 242.268 on 1 procs for 500000 steps with 512 atoms

unfix 1

fix 1 all nvt temp 0.3 0.3 1

compute rdf all rdf 1000 1 1
fix rdf all ave/time 10 25000 500000 c_rdf[*] file system_nvt1.rdf mode vector

compute msd all msd average yes

#OUTPUT
thermo 1000
thermo_style custom step temp press vol density pe c_msd[4]
dump 		trj all atom 500 sys_nvt1.lammpstrj

run 500000
  update every 1 steps, delay 10 steps, check yes
Step Temp Press Volume Density PotEng c_msd[4]
500100   0.31445141   0.79777004    500.23775    1.0235133   -7.5706923            0
Averages over the last 251 of 502 rows, steps 751000 to 1000100:
Temp Press Volume Density PotEng c_msd[4]
0.301036 0.848405 500.238 1.02351 -7.55753 0.00811286
Loop time of 260.276 on 1 procs for 500000 steps with 512 atoms

write_restart 	restart.sys.final
