LAMMPS (7 Aug 2019)
# Input script

units lj # real # i.e. reduced units
dimension 3
atom_style atomic

# CREATE BOX
lattice sc 1
Lattice spacing in x,y,z = 1 1 1
region 1 block 0 40 0 40 0 40
create_box 1 1
Created orthogonal box = (0 0 0) to (40 40 40)
create_atoms 1 random 512 2 1
Created 512 atoms
mass 1 1  # mass is always 1 in reduced unit

# POTENTIAL
pair_style lj/cut 3.0
pair_coeff 1 1 0.001 1.0 # sigma is always 1.0 and the length unit of the system.

timestep 0.001

variable nAtoms equal atoms
variable Nrun equal 500000
variable Ne equal 10
variable Nr_rdf equal 0.5*500000/10

minimize 1.0e-4 1.0e-6 100 10000
  update every 1 steps, delay 0 steps, check yes
Step Temp E_pair E_mol TotEng Press
0            0 0.0097166204            0 0.0097166204 0.00031872049
Loop time of 0.00244498 on 1 procs for 100 steps with 512 atoms

Minimization stats:
  Stopping criterion = max iterations
  Energy initial, next-to-last, final =
  Force two-norm initial, final = 151.611 0.00908878
  Force max component initial, final = 99.8368 0.00207673
  Final line search alpha, max atom move = 1 0.00207673
  Iterations, force evaluations = 100 106

variable  temp  equal 0.3
variable tdump equal 1.0

fix 1 all npt temp 0.3 0.3 1 iso 1.0 1.0 10.0

compute rdf_npt all rdf 1000 1 1
fix rdf_npt all ave/time 10 25000 500000 c_rdf_npt[*] file system_npt.rdf mode vector

#OUTPUT
thermo 1000
thermo_style custom step density
dump 		trj_npt all atom 500 sys_npt.lammpstrj

run 500000
  update every 1 steps, delay 10 steps, check yes
Step Density
     100        0.008
    1000   0.01504488
    2000  0.023636471
    3000  0.033368238
    4000  0.044221791
    5000  0.056148884
    6000  0.069098905
    7000  0.083014987
    8000   0.09781996
    9000   0.11338841
   10000   0.12958799
   11000   0.14651497
   12000   0.16434215
   13000   0.18291123
   14000   0.20203583
   15000   0.22165346
   16000    0.2419217
   17000   0.26293599
   18000   0.28448738
   19000   0.30634011
   20000   0.32852484
   21000   0.35136411
   22000   0.37475393
   23000   0.39834017
   24000   0.42195001
   25000   0.44583588
   26000   0.47028182
   27000   0.49504418
   28000   0.51975719
   29000   0.54428873
   30000   0.56934317
   31000   0.59477036
   32000   0.62011319
   33000   0.64489526
   34000   0.66928714
   35000   0.69383822
   36000   0.71857724
   37000   0.74314125
   38000   0.76699913
   39000   0.79019761
   40000   0.81355856
   41000   0.83670771
   42000   0.85876274
   43000   0.87976516
   44000   0.90068542
   45000   0.92149641
   46000    0.9415207
   47000   0.96049551
   48000   0.97808821
   49000   0.99598489
   50000     1.013481
   51000    1.0299724
   52000    1.0448287
   53000    1.0579771
   54000    1.0704418
   55000    1.0830543
   56000     1.095245
   57000    1.1059874
   58000    1.1157079
   59000    1.1247963
   60000    1.1334093
   61000    1.1405549
   62000    1.1476603
   63000    1.1537538
   64000    1.1602686
   65000    1.1657887
   66000    1.1698799
   67000    1.1731347
   68000    1.1772178
   69000    1.1815031
   70000    1.1850823
   71000    1.1870278
   72000    1.1882447
   73000    1.1893054
   74000    1.1919014
   75000    1.1935051
   76000    1.1943101
   77000    1.1938808
   78000    1.1948829
   79000    1.1969135
   80000    1.1978385
   81000    1.1979549
   82000    1.1980422
   83000    1.1994377
   84000    1.2001926
   85000    1.1996952
   86000    1.1971894
   87000      1.19651
   88000    1.1980031
   89000    1.1976517
   90000    1.1940823
   91000    1.1895471
   92000    1.1869488
   93000    1.1879488
   94000    1.1897451
   95000    1.1900385
   96000    1.1887027
   97000    1.1877904
   98000    1.1887543
   99000    1.1906522
  100000    1.1915993
  101000    1.1922327
  102000    1.1948567
  103000    1.2002405
  104000    1.2053794
  105000    1.2062676
  106000    1.2047575
  107000    1.2038456
  108000    1.2045841
  109000    1.2053799
  110000    1.2024005
  111000    1.1986512
  112000    1.1954156
  113000    1.1946633
  114000    1.1943322
  115000    1.1935597
  116000    1.1910853
  117000    1.1876731
  118000    1.1843386
  119000    1.1826847
  120000    1.1842314
  121000    1.1866942
  122000    1.1869124
  123000    1.1858522
  124000    1.1855223
  125000    1.1859416
  126000    1.1875199
  127000    1.1877564
  128000    1.1866432
  129000    1.1870802
  130000    1.1902709
  131000    1.1936269
  132000     1.193439
  133000    1.1920295
  134000    1.1910502
  135000    1.1915797
  136000    1.1929754
  137000    1.1913968
  138000    1.1874304
  139000    1.1851217
  140000    1.1864504
  141000    1.1873864
  142000    1.1840512
  143000     1.180395
  144000    1.1792433
  145000    1.1808693
  146000    1.1838934
  147000    1.1845579
  148000    1.1842468
  149000    1.1881344
  150000    1.1961498
  151000    1.2027803
  152000    1.2056865
  153000    1.2059462
  154000    1.2079513
  155000    1.2083109
  156000    1.2040601
  157000    1.1965663
  158000    1.1897624
  159000    1.1859742
  160000    1.1855301
  161000    1.1844754
  162000    1.1806645
  163000    1.1772103
  164000    1.1775712
  165000    1.1811528
  166000    1.1855867
  167000    1.1899071
  168000    1.1977466
  169000    1.2069158
  170000    1.2121571
  171000    1.2117166
  172000     1.208532
  173000    1.2047595
  174000    1.2016277
  175000    1.1976885
  176000     1.192241
  177000    1.1885629
  178000    1.1899182
  179000    1.1946647
  180000    1.1981423
  181000    1.1996422
  182000    1.2001945
  183000    1.2009591
  184000    1.2016159
  185000     1.202633
  186000    1.2022483
  187000    1.2006012
  188000    1.1979825
  189000    1.1926033
  190000    1.1838072
  191000    1.1710074
  192000    1.1591204
  193000    1.1543442
  194000     1.155765
  195000    1.1608034
  196000    1.1713508
  197000    1.1896543
  198000    1.2126314
  199000    1.2308368
  200000    1.2361651
  201000    1.2319799
  202000    1.2217807
  203000    1.2060234
  204000    1.1863297
  205000    1.1676976
  206000    1.1550097
  207000    1.1527366
  208000    1.1585939
  209000    1.1688794
  210000    1.1819664
  211000    1.1981952
  212000    1.2150304
  213000    1.2275634
  214000    1.2339143
  215000    1.2357814
  216000    1.2327354
  217000    1.2213357
  218000     1.201497
  219000    1.1816495
  220000    1.1667606
  221000    1.1595345
  222000    1.1594026
  223000    1.1638262
  224000    1.1711085
  225000    1.1809185
  226000    1.1952916
  227000    1.2118991
  228000    1.2220805
  229000    1.2203986
  230000    1.2129107
  231000      1.20427
  232000    1.1945407
  233000    1.1844224
  234000    1.1765266
  235000    1.1756723
  236000     1.182085
  237000    1.1883434
  238000    1.1924245
  239000    1.1971233
  240000    1.2037412
  241000    1.2089135
  242000    1.2075293
  243000    1.2022806
  244000    1.1989075
  245000    1.1958372
  246000    1.1906411
  247000    1.1852528
  248000    1.1836075
  249000    1.1880154
  250000    1.1910976
  251000    1.1908825
  252000    1.1911648
  253000    1.1944399
  254000    1.1983069
  255000    1.1979749
  256000     1.193654
  257000    1.1909424
  258000     1.189996
  259000     1.187157
  260000    1.1832597
  261000    1.1819943
  262000    1.1856266
  263000     1.192223
  264000    1.1992848
  265000    1.2060391
  266000    1.2133244
  267000    1.2195447
  268000    1.2184815
  269000     1.207501
  270000    1.1923494
  271000    1.1784577
  272000    1.1671257
  273000    1.1591812
  274000    1.1555163
  275000    1.1594742
  276000    1.1733093
  277000     1.196494
  278000    1.2183362
  279000    1.2330682
  280000    1.2398777
  281000    1.2379908
  282000    1.2289194
  283000    1.2151893
  284000    1.1961901
  285000    1.1721274
  286000    1.1526435
  287000    1.1448663
  288000    1.1491483
  289000     1.160228
  290000    1.1734905
  291000    1.1884662
  292000    1.2042527
  293000    1.2184322
  294000    1.2244633
  295000    1.2202454
  296000    1.2118393
  297000    1.2038587
  298000     1.197976
  299000     1.193206
  300000    1.1879327
  301000    1.1839594
  302000    1.1816921
  303000    1.1810113
  304000    1.1793523
  305000        1.177
  306000    1.1786406
  307000    1.1850622
  308000    1.1918198
  309000    1.1921104
  310000    1.1896609
  311000    1.1907467
  312000    1.1946292
  313000    1.1959275
  314000    1.1931269
  315000    1.1903265
  316000      1.19124
  317000    1.1937746
  318000     1.196481
  319000    1.1997168
  320000    1.2047234
  321000    1.2119281
  322000    1.2173995
  323000    1.2162295
  324000     1.207779
  325000    1.1958174
  326000    1.1824944
  327000     1.166621
  328000    1.1529977
  329000    1.1454343
  330000    1.1467243
  331000     1.156208
  332000    1.1737202
  333000    1.1972236
  334000    1.2218751
  335000    1.2381746
  336000    1.2440435
  337000    1.2426379
  338000     1.232637
  339000    1.2174414
  340000    1.2003567
  341000    1.1847442
  342000    1.1706234
  343000    1.1585931
  344000     1.153367
  345000    1.1539887
  346000    1.1589652
  347000    1.1663888
  348000    1.1762175
  349000    1.1893135
  350000    1.2013369
  351000    1.2079477
  352000    1.2108676
  353000    1.2152177
  354000    1.2170969
  355000    1.2131884
  356000    1.2058893
  357000      1.20097
  358000    1.1991361
  359000    1.1944091
  360000    1.1876194
  361000    1.1837138
  362000    1.1844457
  363000    1.1867731
  364000    1.1877565
  365000    1.1892186
  366000    1.1931474
  367000    1.1957634
  368000    1.1953388
  369000    1.1950879
  370000    1.1975581
  371000    1.2029919
  372000    1.2091156
  373000     1.213504
  374000    1.2155603
  375000    1.2167468
  376000    1.2179981
  377000    1.2166921
  378000    1.2086863
  379000     1.197897
  380000    1.1905402
  381000    1.1886007
  382000    1.1881668
  383000    1.1883176
  384000    1.1912062
  385000    1.1970303
  386000    1.2003657
  387000    1.1981398
  388000    1.1931365
  389000    1.1883468
  390000     1.186585
  391000    1.1852932
  392000     1.180569
  393000     1.172135
  394000    1.1678539
  395000    1.1705137
  396000    1.1770946
  397000    1.1854848
  398000    1.1960345
  399000    1.2098516
  400000    1.2256095
  401000    1.2329019
  402000    1.2296449
  403000    1.2204006
  404000    1.2086916
  405000    1.1946181
  406000    1.1768201
  407000     1.160067
  408000    1.1503708
  409000    1.1502356
  410000    1.1601062
  411000    1.1757955
  412000    1.1941394
  413000    1.2146923
  414000    1.2344213
  415000    1.2463146
  416000    1.2454396
  417000    1.2334164
  418000    1.2194853
  419000    1.2071322
  420000    1.1938359
  421000    1.1809198
  422000    1.1704354
  423000    1.1634958
  424000    1.1586639
  425000    1.1580485
  426000    1.1645888
  427000     1.175723
  428000    1.1871497
  429000    1.1980106
  430000    1.2090799
  431000    1.2184795
  432000    1.2207801
  433000    1.2172069
  434000    1.2123901
  435000    1.2106128
  436000    1.2087104
  437000    1.2042307
  438000    1.1970433
  439000    1.1917073
  440000    1.1919416
  441000    1.1946522
  442000    1.1960548
  443000    1.1964699
  444000    1.1982758
  445000    1.2019201
  446000    1.2029737
  447000    1.1997117
  448000    1.1959103
  449000    1.1958359
  450000    1.1969021
  451000    1.1964368
  452000    1.1933357
  453000    1.1939792
  454000    1.1993805
  455000    1.2033605
  456000    1.2017901
  457000    1.1965406
  458000    1.1921717
  459000    1.1898636
  460000    1.1867228
  461000    1.1807885
  462000    1.1746953
  463000     1.172001
  464000    1.1719356
  465000    1.1733385
  466000    1.1793233
  467000    1.1924984
  468000    1.2084026
  469000    1.2217522
  470000    1.2307856
  471000    1.2343687
  472000     1.231728
  473000    1.2218951
  474000    1.2057373
  475000    1.1853346
  476000    1.1658853
  477000    1.1496559
  478000    1.1395151
  479000    1.1382587
  480000     1.146328
  481000      1.16061
  482000     1.178903
  483000    1.1983857
  484000    1.2143587
  485000    1.2257328
  486000    1.2310553
  487000    1.2316615
  488000    1.2265397
  489000    1.2140312
  490000    1.2000664
  491000    1.1893706
  492000    1.1820638
  493000    1.1748221
  494000    1.1690241
  495000    1.1680091
  496000     1.172656
  497000    1.1788226
  498000    1.1863748
  499000    1.1948642
  500000    1.2031872
  500100     1.204009
Loop time of 287.757 on 1 procs for 500000 steps with 512 atoms

unfix 1

fix 1 all nvt temp 0.3 0.3 1

compute rdf all rdf 1000 1 1
fix rdf all ave/time 10 25000 500000 c_rdf[*] file system_nvt0001.rdf mode vector

compute msd all msd average yes

#OUTPUT
thermo 1000
thermo_style custom step temp press vol density pe c_msd[4]
dump 		trj all atom 500 sys_nvt0001.lammpstrj

run 500000
  update every 1 steps, delay 10 steps, check yes
Step Temp Press Volume Density PotEng c_msd[4]
500100   0.29761658    1.0262898      425.246     1.204009   0.11930532            0
Averages over the last 251 of 502 rows, steps 751000 to 1000100:
Temp Press Volume Density PotEng c_msd[4]
0.300133 1.01864 425.246 1.20401 0.11722 115.14
Loop time of 321.872 on 1 procs for 500000 steps with 512 atoms

write_restart 	restart.sys.final
